Version 4
SHEET 1 1432 680
WIRE 416 -592 -48 -592
WIRE 1040 -592 512 -592
WIRE 496 -496 496 -544
WIRE 624 -496 496 -496
WIRE 416 -176 176 -176
WIRE 1040 -176 1040 -592
WIRE 1040 -176 512 -176
WIRE 1216 -176 1040 -176
WIRE 1216 -48 1216 -96
WIRE 176 48 176 -176
WIRE 176 48 -48 48
WIRE 176 80 176 48
WIRE 208 80 176 80
WIRE 704 80 464 80
WIRE 1040 80 1040 -176
WIRE 1040 80 704 80
WIRE -48 144 -48 128
WIRE 208 160 144 160
WIRE 496 160 496 -128
WIRE 496 160 464 160
WIRE 144 240 144 160
WIRE 208 240 144 240
WIRE 624 240 624 -496
WIRE 624 240 464 240
WIRE 704 240 704 160
WIRE 704 240 624 240
WIRE 144 320 144 240
FLAG -48 144 0
FLAG 144 320 0
FLAG -48 -512 0
FLAG 1216 -48 0
SYMBOL voltage -48 32 R0
WINDOW 123 0 0 Left 2
WINDOW 39 24 124 Left 2
SYMATTR InstName V1
SYMATTR Value PULSE(0 5 1 0 0 2 2 1)
SYMBOL PowerProducts\\LTC4412 336 160 R0
SYMATTR InstName U1
SYMBOL pmos 416 -128 R270
SYMATTR InstName M1
SYMATTR Value Si4465DY
SYMBOL pmos 416 -544 R270
SYMATTR InstName M2
SYMATTR Value Si4465DY
SYMBOL voltage -48 -608 R0
WINDOW 123 0 0 Left 2
WINDOW 39 24 44 Left 2
SYMATTR InstName V2
SYMATTR Value 4.5
SYMBOL res 1200 -192 R0
SYMATTR InstName R3
SYMATTR Value 10
SYMATTR SpiceLine pwr=100
SYMBOL res 688 64 R0
SYMATTR InstName R1
SYMATTR Value 470K
TEXT -80 344 Left 2 !.tran 5
