Version 4
SHEET 1 1268 680
WIRE 272 -592 -48 -592
WIRE 416 -592 272 -592
WIRE 656 -592 512 -592
WIRE 576 -544 496 -544
WIRE 832 -544 576 -544
WIRE 272 -464 272 -592
WIRE 464 -448 384 -448
WIRE 224 -384 176 -384
WIRE 384 -368 384 -448
WIRE 384 -368 272 -368
WIRE 176 -320 176 -384
WIRE 576 -320 576 -544
WIRE 576 -320 176 -320
WIRE 976 -256 848 -256
WIRE 416 -176 176 -176
WIRE 656 -176 656 -592
WIRE 656 -176 512 -176
WIRE 848 -176 848 -256
WIRE 848 -176 656 -176
WIRE 976 -176 976 -256
WIRE 976 -64 976 -96
WIRE 176 48 176 -176
WIRE 176 48 -48 48
WIRE 176 80 176 48
WIRE 208 80 176 80
WIRE 656 80 656 -176
WIRE 656 80 464 80
WIRE -48 144 -48 128
WIRE 208 160 144 160
WIRE 496 160 496 -128
WIRE 496 160 464 160
WIRE 656 160 656 80
WIRE 144 240 144 160
WIRE 208 240 144 240
WIRE 656 240 464 240
WIRE 832 240 832 -544
WIRE 832 240 656 240
WIRE 144 320 144 240
FLAG -48 144 0
FLAG 144 320 0
FLAG -48 -512 0
FLAG 976 -64 0
FLAG 464 -368 0
SYMBOL voltage -48 32 R0
WINDOW 123 0 0 Left 2
WINDOW 39 0 0 Left 2
SYMATTR InstName V1
SYMATTR Value PULSE(0 5 1 0 0 1 5 1)
SYMBOL PowerProducts\\LTC4412 336 160 R0
SYMATTR InstName U1
SYMBOL res 640 144 R0
SYMATTR InstName R1
SYMATTR Value 470K
SYMATTR SpiceLine tol=1 pwr=0.1
SYMBOL pmos 416 -128 R270
SYMATTR InstName M1
SYMATTR Value FDC638P
SYMBOL pmos 416 -544 R270
SYMATTR InstName M2
SYMATTR Value FDC638P
SYMBOL voltage -48 -608 R0
WINDOW 123 0 0 Left 2
WINDOW 39 0 0 Left 2
SYMATTR InstName V2
SYMATTR Value 4.5
SYMBOL res 960 -192 R0
SYMATTR InstName R2
SYMATTR Value 1
SYMATTR SpiceLine pwr=100
SYMBOL pmos 224 -464 R0
SYMATTR InstName M3
SYMATTR Value FDC638P
SYMBOL res 448 -464 R0
SYMATTR InstName R3
SYMATTR Value 100
TEXT -80 344 Left 2 !.tran 5
