Version 4
SHEET 1 1084 680
WIRE 864 -208 128 -208
WIRE 864 -80 864 -208
WIRE 1008 -80 864 -80
WIRE 448 -48 368 -48
WIRE 1008 -48 1008 -80
WIRE 192 0 -96 0
WIRE -272 48 -384 48
WIRE -96 48 -96 0
WIRE -96 48 -208 48
WIRE 0 48 -96 48
WIRE 128 64 128 -208
WIRE 128 64 96 64
WIRE -384 80 -384 48
WIRE 368 80 368 -48
WIRE 448 80 368 80
WIRE 448 112 448 80
WIRE 192 160 192 0
WIRE 128 176 128 64
WIRE 160 176 128 176
WIRE 400 192 224 192
WIRE 0 208 0 128
WIRE 96 208 0 208
WIRE 160 208 96 208
WIRE 0 224 0 208
WIRE 192 256 192 224
WIRE 192 256 96 256
WIRE 96 272 96 256
WIRE 192 272 192 256
WIRE 96 304 96 272
WIRE 96 304 0 304
WIRE 448 336 448 208
WIRE 496 336 448 336
WIRE 864 336 864 -80
WIRE 864 336 752 336
WIRE -96 384 -96 48
WIRE 384 384 -96 384
WIRE 448 384 448 336
WIRE 448 384 384 384
WIRE 624 464 624 432
FLAG 192 272 0
FLAG -384 160 0
FLAG 448 32 0
FLAG 384 448 0
FLAG 864 400 0
FLAG 1008 32 0
FLAG 624 464 0
FLAG -96 464 0
FLAG 96 128 0
SYMBOL Opamps\\LT1013 192 128 R0
SYMATTR InstName U1
SYMBOL res -16 32 R0
SYMATTR InstName R1
SYMATTR Value 12K
SYMBOL res -16 208 R0
SYMATTR InstName R2
SYMATTR Value 25K
SYMBOL voltage -384 64 R0
WINDOW 123 0 0 Left 2
WINDOW 39 0 0 Left 2
SYMATTR InstName V1
SYMATTR Value PULSE(0 6 1 0 0 2 2 1)
SYMBOL pmos 400 112 R0
SYMATTR InstName M1
SYMATTR Value Si4465DY
SYMBOL voltage 448 -64 R0
WINDOW 123 0 0 Left 2
WINDOW 39 0 0 Left 2
SYMATTR InstName V2
SYMATTR Value 5
SYMBOL PowerProducts\\LT1084-3.3 624 336 R0
SYMATTR InstName U2
SYMBOL cap 848 336 R0
SYMATTR InstName C2
SYMATTR Value 0.1µ
SYMATTR SpiceLine V=25 Irms=950m Rser=0.0765605 Lser=0
SYMBOL res 992 -64 R0
SYMATTR InstName R3
SYMATTR Value 16.5
SYMBOL res -112 368 R0
SYMATTR InstName R4
SYMATTR Value 10
SYMBOL cap 368 384 R0
SYMATTR InstName C1
SYMATTR Value 0.1µ
SYMATTR SpiceLine V=25 Irms=950m Rser=0.0765605 Lser=0 mfg="KEMET" pn="C2220C104K3RAC" type="X7R"
SYMBOL schottky -272 32 M90
WINDOW 0 0 32 VBottom 2
WINDOW 3 32 32 VTop 2
SYMATTR InstName D1
SYMATTR Value 10MQ060N
SYMATTR Description Diode
SYMATTR Type diode
SYMBOL cap 80 64 R0
SYMATTR InstName C3
SYMATTR Value 0.1µ
SYMATTR SpiceLine V=25 Irms=950m Rser=0.0765605 Lser=0 mfg="KEMET" pn="C2220C104K3RAC" type="X7R"
SYMBOL cap 80 208 R0
SYMATTR InstName C4
SYMATTR Value 0.1µ
SYMATTR SpiceLine V=25 Irms=950m Rser=0.0765605 Lser=0 mfg="KEMET" pn="C2220C104K3RAC" type="X7R"
TEXT -242 488 Left 2 !.tran 10
